Version 4
SHEET 1 880 680
WIRE 512 80 448 80
WIRE 208 192 -96 192
WIRE 240 192 208 192
WIRE 336 192 320 192
WIRE 448 192 448 80
WIRE 448 192 416 192
WIRE -96 224 -96 192
WIRE 208 224 208 192
WIRE 448 240 448 192
WIRE 512 240 512 160
WIRE -96 336 -96 304
WIRE 256 352 96 352
WIRE 448 352 448 320
WIRE 448 352 256 352
WIRE 512 352 512 304
WIRE 512 352 448 352
WIRE 256 368 256 352
WIRE 256 368 208 368
WIRE -96 464 -96 416
WIRE -80 464 -96 464
WIRE -16 464 -80 464
WIRE 96 464 96 352
WIRE 96 464 64 464
WIRE 336 496 336 464
WIRE -80 512 -80 464
WIRE 0 560 0 512
FLAG 48 512 Ust
FLAG 0 560 0
FLAG 336 464 Ust
FLAG 336 576 0
FLAG -80 512 0
SYMBOL voltage -96 208 R0
SYMATTR InstName V1
SYMATTR Value 12
SYMBOL diode 224 288 R180
WINDOW 0 24 64 Left 2
WINDOW 3 24 0 Left 2
SYMATTR InstName D1
SYMATTR Value Dio
SYMBOL ind 224 208 R270
WINDOW 0 32 56 VTop 2
WINDOW 3 5 56 VBottom 2
SYMATTR InstName L1
SYMATTR Value 1m
SYMBOL res 432 224 R0
SYMATTR InstName R1
SYMATTR Value 10
SYMBOL sw -32 464 R270
SYMATTR InstName SW1
SYMATTR Value SW1
SYMBOL voltage 336 480 R0
SYMATTR InstName V2
SYMATTR Value PULSE(0 1 0 5n 5n 1.13u 3.012u)
SYMBOL res 432 176 R90
WINDOW 0 0 56 VBottom 2
WINDOW 3 32 56 VTop 2
SYMATTR InstName R2
SYMATTR Value 1µ
SYMBOL cap 496 240 R0
SYMATTR InstName C1
SYMATTR Value 100µ
SYMBOL res 224 384 R180
WINDOW 0 36 76 Left 0
WINDOW 3 36 40 Left 0
SYMATTR InstName R3
SYMATTR Value 1m
SYMBOL res -112 320 R0
SYMATTR InstName R4
SYMATTR Value 30
SYMBOL res 496 64 R0
SYMATTR InstName R5
SYMATTR Value 10
TEXT 544 224 Left 2 !.tran 0 20m 0 100n uic
TEXT -40 -24 Left 2 !.model Dio D(Ron 25m Roff=10Meg)
TEXT -544 -32 Left 2 !.model SW1 SW(Ron 5 Roff=10Meg Vt=0.5)
